Version 4
SHEET 1 1868 688
WIRE -224 32 -288 32
WIRE 32 32 -144 32
WIRE 192 32 32 32
WIRE 304 32 192 32
WIRE 32 64 32 32
WIRE 304 64 304 32
WIRE 32 160 32 144
WIRE 128 160 32 160
WIRE 32 176 32 160
WIRE 192 272 192 32
WIRE 128 288 128 160
WIRE 160 288 128 288
WIRE 304 304 304 144
WIRE 304 304 224 304
WIRE -288 320 -288 32
WIRE -224 320 -288 320
WIRE 32 320 -144 320
WIRE 96 320 32 320
WIRE 160 320 96 320
WIRE 32 368 32 320
WIRE 96 368 96 320
WIRE 192 368 192 336
WIRE 304 416 304 304
WIRE 304 416 160 416
WIRE 32 480 32 448
WIRE 96 480 96 464
WIRE 96 480 32 480
WIRE -288 512 -288 320
WIRE 32 512 32 480
FLAG -288 512 0
FLAG 32 256 0
FLAG 192 368 0
FLAG 32 512 0
SYMBOL voltage -128 32 R90
WINDOW 0 -50 38 VRight 2
WINDOW 3 50 48 VRight 2
WINDOW 123 0 0 Left 0
WINDOW 39 75 -1 VRight 2
SYMATTR InstName 5V
SYMATTR Value 5
SYMATTR SpiceLine Rser=0.1
SYMBOL voltage -128 320 R90
WINDOW 0 -32 56 VBottom 2
WINDOW 3 34 44 VTop 2
WINDOW 123 0 0 Left 0
WINDOW 39 65 98 VTop 2
SYMATTR InstName RGB
SYMATTR Value SINE(0.35 0.35 1)
SYMATTR SpiceLine Rser=26
SYMBOL res 16 48 R0
SYMATTR InstName R1
SYMATTR Value 40000
SYMBOL res 16 160 R0
WINDOW 0 -93 39 Left 2
WINDOW 3 -92 73 Left 2
SYMATTR InstName RV
SYMATTR Value {RPot}
SYMBOL npn 160 368 M0
WINDOW 0 -36 70 Left 2
WINDOW 3 -56 98 Left 2
SYMATTR InstName Q1
SYMBOL res 16 352 R0
WINDOW 0 -54 44 Left 2
WINDOW 3 -39 72 Left 2
SYMATTR InstName LCD
SYMATTR Value 75
SYMBOL res 288 48 R0
SYMATTR InstName R2
SYMATTR Value 3300
SYMBOL Opamps\\opamp2 192 240 R0
SYMATTR InstName U1
SYMATTR Value LM393
TEXT -328 600 Left 2 !.step PARAM RPot 1000 10000 1000
TEXT -328 640 Left 2 !.tran 2
TEXT -328 672 Left 2 !.inc Models\\LM393.LIB
TEXT -288 -216 Left 2 ;Rev 1.0
TEXT -288 -248 Left 2 ;Pixel Slasher LT Spice Model
TEXT -288 -184 Left 2 ;Author: Patrick Pedersen
TEXT -288 -152 Left 2 ;License: TAPR Open Hardware License v1.0
TEXT -288 -120 Left 2 ;https://www.tapr.org/ohl.html
TEXT -288 -88 Left 2 ;Description: This simulation is a simplified model of the Pixel Slasher circuit. Only one color signal input is simulated here, and is represented by a sine function with an amplitude of 0.7V.
