*
.MODEL QBC337-40 NPN( 
+    IS = 7.809E-14 
+    NF = 0.9916 
+    ISE = 2.069E-15 
+    NE = 1.4 
+    BF = 436.8 
+    IKF = 0.8 
+    VAF = 103.6 
+    NR = 0.991 
+    ISC = 6.66E-14 
+    NC = 1.2 
+    BR = 44.14 
+    IKR = 0.09 
+    VAR = 14 
+    RB = 70 
+    IRB = 0.0002 
+    RBM = 8 
+    RE = 0.12 
+    RC = 0.24 
+    XTB = 0 
+    EG = 1.11 
+    XTI = 3 
+    CJE = 3.579E-11 
+    VJE = 0.6657 
+    MJE = 0.3596 
+    TF = 5E-10 
+    XTF = 2.5 
+    VTF = 2 
+    ITF = 0.5 
+    PTF = 88 
+    CJC = 1.306E-11 
+    VJC = 0.3647 
+    MJC = 0.3658 
+    XCJC = 0.455 
+    TR = 2.5E-08 
+    CJS = 0 
+    VJS = 0.75 
+    MJS = 0.333 
+    FC = 0.843) 
*
